132
superimposed things
C 5.7828475 9.0296555 39.3799115
C 13.3891585 9.0035455 39.379907
C 9.572946 11.192313 37.752455
C 9.5990555 6.8409115 37.7524475
C 9.5988355 5.2104025 39.3824605
C 9.5731775 12.8228205 39.3824685
C 11.7591445 9.003776 37.7493985
C 7.4128605 9.0294355 37.7494025
C 9.5860045 9.0166095 38.8544155
C 10.9404695 7.662146 40.2011425
C 8.2315425 10.3710695 40.201146
C 6.1879935 9.033135 38.154525
C 12.984012 9.0000685 38.154521
C 9.5694695 12.4177005 38.157603
C 9.602535 5.615525 38.1575935
C 11.4987095 10.929306 39.6429045
C 10.941318 10.3719155 40.2002965
C 7.673306 7.103906 39.642906
C 8.2306975 7.6612975 40.2002975
C 13.3891525 9.029656 43.7313165
C 5.782855 9.003546 43.731313
C 11.7617165 12.8197525 41.568656
C 11.761713 5.213455 41.542546
C 7.4103115 5.2134475 41.5686555
C 7.410307 12.8197585 41.5425455
C 9.599056 11.1923165 45.3587525
C 9.5729455 6.840907 45.3587585
C 9.5988335 12.822824 43.7287385
C 9.573176 5.2103985 43.7287445
C 13.392224 11.1897385 41.5684335
C 5.7797985 11.1897445 41.542776
C 5.7798025 6.8434605 41.5684355
C 13.3922205 6.8434685 41.5427775
C 11.7591385 9.0294335 45.361824
C 7.4128685 9.0037775 45.3618205
C 12.2871975 9.016605 41.555609
C 6.8848155 9.0166045 41.5556095
C 9.586009 11.7177975 41.555605
C 9.5860095 6.3154155 41.5556045
C 9.586005 9.016609 44.2567975
C 8.231546 7.6621425 42.9100695
C 10.940471 10.371071 42.910071
C 12.9840045 9.0331345 44.956704
C 6.188003 9.0000695 44.9567005
C 12.987104 12.4146045 41.5721345
C 12.9871005 5.618603 41.5390695
C 6.184925 5.6185935 41.572135
C 6.184921 12.414612 41.5390685
C 9.6025345 12.417704 44.9536045
C 9.5694685 5.615521 44.953612
C 7.6733045 10.9293095 43.468306
C 8.2306965 10.371918 42.9109155
C 11.498706 7.1039045 43.4683095
C 10.9413155 7.6612965 42.910918
C 5.4236975 9.036606 37.3902885
C 13.748307 8.996593 37.3902835
C 9.5659945 13.181938 37.3933075
C 9.606006 4.8512885 37.3932975
C 13.7482995 9.0366045 45.720942
C 5.4237075 8.9965945 45.720938
C 13.751342 13.1788995 41.5756045
C 13.751338 4.8543075 41.5355945
C 5.4206885 4.8542975 41.575606
C 5.4206835 13.178907 41.535593
C 9.6060045 13.181942 45.7178995
C 9.565993 4.8512835 45.717907
N 5.7801669986 9.03916954652 39.3800965281
N 13.391845293 8.99404206626 39.380095531
N 9.56344253481 11.1921157263 37.749766416
N 9.60856954652 6.84109652806 37.7497669986
N 9.60856982093 5.21076714459 39.3800965067
N 9.56344183465 12.8224452442 39.3800956723
N 11.7615155847 8.99404236945 37.7497664501
N 7.41049650666 9.03916982093 37.7497671446
N 9.58600625962 9.01660631044 38.8531663041
N 10.938062893 7.66454908165 40.2035490235
N 8.23394902353 10.368662893 40.2035490817
N 6.18522332561 9.04716094853 38.154823427
N 12.9867888141 8.98605087684 38.1548225042
N 9.55545084524 12.4173888643 38.1548225586
N 9.61656094853 5.61582342705 38.1548233256
N 11.5008455274 10.9314456094 39.6407669243
N 10.9433853547 10.3739854154 40.1982270111
N 7.67116763906 7.10176763906 39.6407676391
N 8.22862778406 7.65922778406 40.1982277841
N 13.3918448957 9.03917229263 43.7311154058
N 5.78016641605 8.99404253481 43.7311157263
N 11.7615154058 12.8224448957 41.5781722926
N 11.7615157263 5.21076641605 41.5330425348
N 7.41049652806 5.2107669986 41.5781695465
N 7.41049553096 12.822445293 41.5330420663
N 9.60857229263 11.1921154058 45.3614448957
N 9.56344206626 6.84109553096 45.361445293
N 9.60857202722 12.8224448383 43.7311154467
N 9.56344236945 5.21076645006 43.7311155847
N 13.3918448383 11.1921154467 41.5781720272
N 5.78016645006 11.1921155847 41.5330423695
N 5.78016714459 6.84109650666 41.5781698209
N 13.3918452442 6.84109567232 41.5330418346
N 11.7615154467 9.03917202722 45.3614448383
N 7.41049567232 8.99404183465 45.3614452442
N 12.288446278 9.01660548848 41.5556054257
N 6.88356630412 9.01660625962 41.5556063104
N 9.5860054257 11.719046278 41.5556054885
N 9.58600631044 6.31416630412 41.5556062596
N 9.58600548848 9.0166054257 44.258046278
N 8.23394908165 7.66454902353 42.907662893
N 10.9380577231 10.3686577231 42.9076577231
N 12.986788539 9.04716441064 44.9563884776
N 6.18522255862 8.98605084524 44.9563888643
N 12.9867884776 12.417388539 41.5861644106
N 12.9867888643 5.61582255862 41.5250508452
N 6.18522342705 5.61582332561 41.5861609485
N 6.1852225042 12.4173888141 41.5250508768
N 9.61656441064 12.4173884776 44.956388539
N 9.55545087684 5.6158225042 44.9563888141
N 7.67116692431 10.9314455274 43.4704456094
N 8.22862701111 10.3739853547 42.9129854154
N 11.5008456094 7.10176692431 43.4704455274
N 10.9433854154 7.65922701111 42.9129853547
N 5.42075050791 9.05903590108 37.3903506212
N 13.7512615142 8.97417578603 37.390349583
N 9.54357575703 13.1818615869 37.3903496562
N 9.62843590108 4.85135062119 37.3903505079
N 13.7512612961 9.0590412461 45.720861225
N 5.42074965622 8.97417575703 45.7208615869
N 13.751261225 13.1818612961 41.5980412461
N 13.7512615869 4.85134965622 41.513175757
N 5.42075062119 4.85135050791 41.5980359011
N 5.42074958296 13.1818615142 41.513175786
N 9.6284412461 13.181861225 45.7208612961
N 9.54357578603 4.85134958296 45.7208615142
