56
superimposed things
C 7.485452 8.4989585 10.379873
C 5.255229 11.4920405 10.218128
C 3.7758635 8.055079 10.257639
C 6.0477215 6.903881 10.8386365
C 3.0830775 10.1036025 10.638465
C 7.3378685 11.0774665 10.775074
C 7.0177375 7.351488 10.168404
C 6.4892545 11.645734 10.0356075
C 3.0366985 9.031821 9.975572
C 7.525999 8.0586685 13.102515
C 5.5254815 11.9380775 12.927546
C 3.165908 8.26455 12.939191
C 5.5155285 7.2813685 13.5194385
C 3.457781 10.4004545 13.3551915
C 7.18948 10.620409 13.4907615
C 7.229079 9.5500505 11.9316535
C 4.4199755 10.855723 11.7916375
C 4.6921515 7.7679105 11.887291
C 5.446805 9.3913085 11.8701855
C 6.7421435 7.3465205 13.786701
C 6.511895 11.66508 13.6642145
C 2.8845975 9.3067635 13.5906095
C 7.4625345 6.731668 9.402613
C 6.8300395 12.2859325 9.234043
C 2.339997 8.9478515 9.1533615
C 7.134602 6.772499 14.6143255
C 6.7866605 12.3483595 14.455473
C 2.12804 9.2612345 14.36135
N 7.48447936849 8.50233699112 10.3784851918
N 5.25183029691 11.4867456193 10.2157672108
N 3.78254277015 8.05778703716 10.2522526386
N 6.05196287595 6.90374395582 10.8413546518
N 3.07872249178 10.1003220198 10.645367361
N 7.33527248023 11.0805593036 10.7780239753
N 7.02017348754 7.35295130865 10.1694636648
N 6.48593359995 11.644156647 10.0353005883
N 3.03756623705 9.03204479624 9.97622876113
N 7.52391542378 8.05548986139 13.1008370683
N 5.53015162663 11.9400726725 12.9230645964
N 3.16231818235 8.26720514658 12.9325311336
N 5.51121481639 7.28403062979 13.5200485295
N 3.46516345145 10.3995093794 13.3608005891
N 7.18711235832 10.616983314 13.493824626
N 7.2281445272 9.55006036074 11.9323955146
N 4.42054091276 10.8546750229 11.7929526236
N 4.69248609538 7.76896109915 11.8852412561
N 5.44705717778 9.39123216128 11.8701964644
N 6.73821533873 7.34608816503 13.7864617036
N 6.51365026102 11.6649087031 13.6631130786
N 2.88680414743 9.30724334379 13.5906109882
N 7.46672720407 6.73313377043 9.40473280823
N 6.82580285808 12.2839180398 9.23305902072
N 2.34022987672 8.94851181537 9.15455879961
N 7.12944871186 6.77152274182 14.6142348051
N 6.78962113467 12.3491572611 14.4530759082
N 2.13051328733 9.26114933325 14.3615174426
