36
superimposed things
C 38.4250225 6.0234085 6.716593
C 39.2126225 4.8657475 6.66891
C 40.6044195 5.024812 6.727823
C 41.1880585 6.279368 6.8267155
C 40.40054 7.437182 6.871984
C 39.0086395 7.277924 6.816127
C 36.7185275 6.045873 6.66645
C 36.796308 7.759361 6.7817305
C 38.074439 8.278475 6.8536035
C 42.894117 6.256092 6.889686
C 42.8160505 4.542072 6.7828145
C 41.5382185 4.0235145 6.7021465
C 38.760868 3.884518 6.592267
C 40.8522405 8.418311 6.95021
C 38.3015385 9.334012 6.931255
C 41.310906 2.967581 6.63076
C 35.912517 8.3826955 6.79815
C 43.6993665 3.917853 6.7803745
N 38.4248186354 6.0230910932 6.7220307788
N 39.212431653 4.86531160384 6.67557962819
N 40.6042069886 5.02452045135 6.73294418928
N 41.1878915307 6.27899485773 6.83219053664
N 40.4002781987 7.43677383005 6.87864800727
N 39.0085055439 7.27756998032 6.82120522098
N 36.718545754 6.04593805577 6.66549831246
N 36.7964661085 7.75970767013 6.77656686356
N 38.0744408275 8.27854885533 6.85273502845
N 42.8941630254 6.25614478824 6.88876364905
N 42.816243197 4.54237903883 6.77765246208
N 41.5382753058 4.02354873278 6.70130837157
N 38.7606785954 3.88416071463 6.59812932791
N 40.8520333853 8.41792717944 6.95605706931
N 38.3016614272 9.33426679376 6.92719576865
N 41.3110592846 2.9678410505 6.62669486411
N 35.912894901 8.38348249982 6.7861155276
N 43.6998051381 3.9185928043 6.76828439409
