56
superimposed things
C 7.46123153 7.98523805 10.63877382
C 5.21472558 11.5716623 10.49847202
C 3.2294363 7.83347151 10.6053766
C 5.67007622 6.71447057 10.66488852
C 3.02561459 10.01894434 10.52996976
C 7.21085615 10.65710426 10.54764323
C 6.80115203 7.00895002 10.21041835
C 6.38385693 11.46306058 10.05796994
C 2.73329659 8.87386938 10.11077563
C 7.4355093 8.07795118 13.51072771
C 5.18961592 11.66500424 13.37030295
C 3.20470452 7.92587385 13.47726648
C 5.64416105 6.80762833 13.53672917
C 2.99921444 10.1112103 13.4018886
C 7.18541114 10.74953118 13.41958679
C 7.11081646 9.34750943 12.0278623
C 4.23074391 10.66775694 11.95726159
C 4.52610408 7.51425703 12.06527726
C 5.28922389 9.17650832 12.01679782
C 6.76727834 7.13150513 13.99125545
C 6.35021637 11.58558428 13.83877889
C 2.69955887 8.99610297 13.8916332
C 7.22148246 6.40067988 9.42196884
C 6.68889042 12.08529796 9.22760704
C 2.02980644 8.78080507 9.29490304
C 7.17300213 6.57600735 14.82593103
C 6.64073413 12.26058036 14.63152386
C 1.98152998 8.95573726 14.69892945
N 7.4621708155 7.98458860117 10.638971589
N 5.21437606123 11.5695404776 10.4985305406
N 3.23107720263 7.83275287435 10.6029792245
N 5.67074347063 6.71447550343 10.6627580991
N 3.02352407609 10.0178639819 10.5328580857
N 7.2112071911 10.6563331887 10.5488200651
N 6.80264449399 7.00813059224 10.2098269071
N 6.38402187083 11.4617722254 10.0590713265
N 2.73231650814 8.87310601723 10.1117112196
N 7.43439542979 8.07885328095 13.5109806164
N 5.19003841386 11.6667725576 13.3704690041
N 3.20319665937 7.92655210691 13.4749542887
N 5.64351787097 6.80783068732 13.5346829996
N 3.00130004392 10.1124412518 13.4048914733
N 7.18500287239 10.7502327237 13.420836428
N 7.11066070799 9.34754873073 12.0285032895
N 4.23077426682 10.6676767105 11.9584781437
N 4.5261735788 7.51434994408 12.0634649094
N 5.28919277384 9.17652899787 12.016825185
N 6.76642182349 7.13155593811 13.9896293655
N 6.35056604597 11.5877203841 13.8389376422
N 2.69941177107 8.99675569059 13.8916246851
N 7.22443491512 6.39845521703 9.4228081245
N 6.68982356352 12.084747886 9.22998169165
N 2.02691793589 8.77994902152 9.29760964065
N 7.1726359958 6.57472141847 14.8226669222
N 6.64172411785 12.2648941782 14.6299271847
N 1.9799792934 8.9561518824 14.6977206887
